16
	Energy:     101.5279847
C         -3.69068        0.01855        2.83147
C         -4.16331        0.73888        1.75612
C         -3.29690        0.97716        0.60546
C         -1.92717        0.46072        0.57517
C         -1.44448       -0.26252        1.64852
C         -2.32065       -0.50183        2.80884
O         -0.95986        0.58017       -0.41593
O         -0.12819       -0.65664        1.41477
O         -5.47462        1.14107        1.96983
O         -4.66915       -0.09165        3.81271
B         -5.84385        0.62388        3.29266
B          0.22495       -0.12898        0.08349
H         -6.96935        0.77094        3.87294
H          1.34154       -0.25409       -0.53383
H         -3.67850        1.54103       -0.22726
H         -1.96655       -1.06379        3.65911
