6
	Energy:      -0.5839564
C         -0.96331       -1.48161        0.00000
C         -0.97126       -0.28163       -0.00000
C         -0.98236        1.25040       -0.00000
C         -0.99198        2.45038       -0.00000
H         -0.95680       -2.54642        0.00000
H         -1.00107        3.51516       -0.00000
