87
	Energy:     428.7529967
C         -1.51011       -0.03159        0.18733
C         -0.85268        1.21133        0.24896
C          0.55353        1.27548        0.26278
C          1.30252        0.08499        0.21128
C          0.65547       -1.16361        0.14788
C         -0.75097       -1.21606        0.13789
N         -1.59230        2.34276        0.29441
C         -2.94868        2.33499        0.28283
C         -3.62262        1.08203        0.22130
N         -2.87745       -0.06437        0.17583
N          1.20836        2.47465        0.32569
C          2.57449        2.54579        0.34031
C          3.32392        1.33610        0.28652
N          2.65294        0.15888        0.22427
N         -1.36175       -2.42139        0.07975
C         -0.67635       -3.59083        0.02871
C          0.74701       -3.54752        0.03571
N          1.36796       -2.33000        0.09594
C          3.25127        3.79531        0.40827
C          4.65467        3.79214        0.41988
C          5.38091        2.61112        0.36648
C          4.74680        1.36025        0.29864
C         -3.68148        3.55403        0.33024
C         -5.08335        3.47756        0.31400
C         -5.74408        2.25896        0.25483
C         -5.04468        1.04310        0.20769
C          1.49229       -4.75809       -0.01951
C          0.78829       -5.97081       -0.07778
C         -0.59866       -6.00846       -0.08222
C         -1.36642       -4.83407       -0.03014
H         -5.69324        4.36570        0.34788
H         -6.82215        2.28236        0.24654
C         -5.84025       -0.22898        0.14617
H         -1.06338       -6.97995       -0.12837
H          1.30743       -6.91500       -0.12057
C          2.99301       -4.81033       -0.01944
C          5.60565        0.11669        0.24228
H          6.45552        2.69447        0.37907
H          5.21360        4.71295        0.47045
C         -3.03282        4.91861        0.39660
C         -3.71524        6.13279        0.43567
C         -2.76404        7.12574        0.49274
C         -1.53811        6.50000        0.48690
N         -1.70183        5.16510        0.42887
C         -0.24635        7.22214        0.53902
C          0.97232        6.65004        0.52692
C          2.21906        7.38780        0.57889
C          3.21074        6.44138        0.54290
C          2.54609        5.11970        0.46838
N          1.26736        5.26557        0.46105
H         -0.92938        4.48433        0.41498
H         -4.78014        6.30872        0.42518
H         -2.94901        8.19129        0.53398
H         -0.29328        8.30691        0.59055
H          2.35951        8.45946        0.63447
H          4.26612        6.66922        0.56688
C         -7.31897       -0.31460        0.13221
C         -7.64333       -1.64571        0.07391
C         -6.37961       -2.35559        0.05256
N         -5.32677       -1.40825        0.09978
C         -6.26567       -3.69597       -0.00212
C         -4.99295       -4.45259       -0.02583
C         -4.92151       -5.82622       -0.07625
C         -3.58461       -6.15273       -0.08467
C         -2.87390       -4.95514       -0.03869
N         -3.75396       -3.92675       -0.00324
H         -3.55072       -2.91795        0.03315
H         -8.04474        0.48460        0.16112
H         -8.64289       -2.05990        0.04973
H         -7.18272       -4.27887       -0.03130
H         -5.75248       -6.51907       -0.10389
H         -3.20391       -7.16212       -0.12037
C          3.80704       -6.04626       -0.08246
C          5.12308       -5.66155       -0.06030
C          5.10614       -4.21402        0.01539
N          3.75828       -3.77697        0.03531
C          6.21090       -3.44580        0.05964
C          6.22998       -1.96718        0.13818
C          7.38454       -1.21957        0.18870
C          6.99885        0.09984        0.25489
N          5.15466       -1.15799        0.17048
H          4.17892       -1.48579        0.14269
H          7.68312        0.93308        0.30555
H          8.40051       -1.59242        0.17873
H          7.17486       -3.94765        0.03713
H          5.98216       -6.31894       -0.09321
H          3.47741       -7.07324       -0.13685
